%chk=geometry.chk
%mem=4GB
%nprocshared=4

#P OPT wB97XD/6-31G* NoSymm

PRODUCT Geometry (Unoptimized)

0 1 
 C                 -0.40826684   -1.31091024   -0.07933038
 C                  0.93658581   -0.91684531   -0.08180577
 C                  1.26774989    0.44486131   -0.07908649
 C                  0.25406132    1.41250299   -0.07388915
 C                 -1.09079133    1.01843806   -0.07141132
 C                 -1.42195541   -0.34326856   -0.07413191
 H                 -0.66111797   -2.35060345   -0.08140984
 H                  1.71055953   -1.65566121   -0.08577413
 H                  0.50691244    2.45219622   -0.07181358
 H                 -1.86476504    1.75725396   -0.06744188
 H                 -2.44878026   -0.64414587   -0.07224203
 N                  2.67843450    0.85821613   -0.08168310
 C                  3.61414703   -0.03499159   -0.08647719
 H                  2.91474396    1.82989204   -0.07974170
 O                  3.27622451   -1.42448815   -0.08924883
 O                  4.98644565    0.36711548   -0.08900512
 C                  5.77395119   -0.62109664    0.58045125
 C                  5.99194393   -0.52574788    1.96150510
 C                  6.32771387   -1.68489327   -0.14453535
 C                  6.76369611   -1.49419790    2.61757301
 H                  5.56913566    0.28648566    2.51504809
 C                  7.09946815   -2.65334190    0.51153212
 H                  6.16127443   -1.75769228   -1.19900120
 C                  7.31745765   -2.55799528    1.89258663
 H                  6.93013901   -1.42139661    3.67203815
 H                  7.52227931   -3.46557354   -0.04201145
 H                  7.90670701   -3.29742873    2.39350915








