27
geometry.out	Energy: -443644.8970631
C         -0.88241       -1.10126       -0.61289
C          0.46089       -1.05845       -0.25195
C          1.04983        0.17446        0.04063
C          0.28397        1.34257       -0.03207
C         -1.05513        1.28174       -0.39324
C         -1.64852        0.05732       -0.68693
H         -1.33195       -2.06379       -0.83850
H          1.05025       -1.96321       -0.19570
H          0.74033        2.30346        0.19499
H         -1.63472        2.19856       -0.44464
H         -2.69520        0.00801       -0.96964
N          2.39963        0.31582        0.41453
C          3.34555       -0.65999        0.53474
H          2.72092        1.25075        0.61733
O          3.20945       -1.84457        0.34853
O          4.51025       -0.05422        0.91617
C          5.64468       -0.83215        1.10316
C          6.31658       -0.67415        2.30756
C          6.13358       -1.66613        0.10434
C          7.50486       -1.36704        2.51866
H          5.90522       -0.01153        3.06171
C          7.31777       -2.35927        0.33158
H          5.59013       -1.77866       -0.82589
C          8.00635       -2.21250        1.53347
H          8.03587       -1.24581        3.45782
H          7.70449       -3.01774       -0.44013
H          8.93129       -2.75553        1.70059
