27
geometry.out	Energy: -443590.1329488
C         -0.49354       -1.30637        0.18300
C          0.89709       -1.32486        0.17681
C          1.60116       -0.11952        0.11657
C          0.90845        1.09096        0.06405
C         -0.48086        1.09623        0.07128
C         -1.18875       -0.10155        0.13070
H         -1.03583       -2.24599        0.22968
H          1.43308       -2.26740        0.21890
H          1.46961        2.01907        0.01699
H         -1.01196        2.04245        0.02980
H         -2.27413       -0.09592        0.13621
N          3.00933       -0.05821        0.11091
C          3.80509       -1.08202        0.12682
H          4.13923        0.62586        0.07262
O          4.00111       -2.24295        0.18000
O          5.16263        0.01264        0.01303
C          6.01490        0.01914        1.09487
C          5.98212        1.06995        2.00692
C          6.90168       -1.04236        1.25025
C          6.85826        1.05697        3.08797
H          5.28301        1.88877        1.86398
C          7.76475       -1.04641        2.34061
H          6.89922       -1.84718        0.52347
C          7.74862        0.00062        3.25965
H          6.84073        1.87709        3.79927
H          8.45715       -1.87272        2.46958
H          8.42859       -0.00624        4.10556
