%chk=geometry.chk
%mem=56GB
%nprocshared=24

#P OPT=QST3 wB97XD/6-31G* NoSymm

Reactants

0 1 
 C                 -0.69984075   -1.07429870    0.09261830
 C                  0.68396287   -1.19143049    0.03727342
 C                  1.47443807   -0.03936424    0.02600544
 C                  0.87781149    1.22053055    0.07001162
 C                 -0.50714609    1.32521958    0.12517756
 C                 -1.30070307    0.18112992    0.13675394
 H                 -1.31029217   -1.97210377    0.10123941
 H                  1.15450977   -2.16967836    0.00276239
 H                  1.50850077    2.10293905    0.06036584
 H                 -0.96734406    2.30789150    0.15934608
 H                 -2.38180011    0.26677638    0.17992131
 N                  2.87018449   -0.10552237   -0.02900122
 C                  3.74754668   -0.93149517   -0.07624072
 O                  4.68781640   -1.63111579   -0.12393209
 H                  4.40904919    0.56701742    1.26477674
 O                  5.02072919   -0.17748258    1.22298674
 C                  5.92043919   -0.07252258    2.23869674
 C                  5.89773919    0.97618742    3.15817674
 C                  6.89245919   -1.06881258    2.33897674
 C                  6.84794919    1.02421742    4.17476674
 H                  5.14018919    1.75359742    3.08075674
 C                  7.83431919   -1.00868258    3.35775674
 H                  6.89214919   -1.87564258    1.61354674
 C                  7.82004919    0.03549742    4.28171674
 H                  6.82292919    1.84437742    4.88634674
 H                  8.58822919   -1.78717258    3.43029674
 H                  8.55910919    0.07623742    5.07529674

Product

0 1
 C                 -0.50003180   -1.12927121   -0.05592680
 C                  0.88724954   -1.00996712   -0.05318747
 C                  1.48169031    0.26726709    0.01345615
 C                  0.64768773    1.40975985    0.07689981
 C                 -0.73473656    1.26358616    0.07456915
 C                 -1.31598567   -0.00196431    0.00782442
 H                 -0.95083379   -2.13223666   -0.10868405
 H                  1.51048943   -1.91858471   -0.10422008
 H                  1.08223620    2.41944692    0.12991494
 H                 -1.37204094    2.15942637    0.12525841
 H                 -2.40998997   -0.10823108    0.00558652
 N                  2.87435536    0.46121049    0.03557673
 C                  3.81862563   -0.52629534   -0.15171103
 H                  3.20372894    1.39941244    0.10556269
 O                  3.68751466   -1.74802317   -0.29478050
 O                  5.09267079    0.03864982   -0.16380812
 C                  6.19090456   -0.81845662   -0.24235629
 C                  7.22404413   -0.56811635    0.67283064
 C                  6.31457709   -1.78926908   -1.24139708
 C                  8.40495313   -1.29857720    0.56217984
 H                  7.09763243    0.19877177    1.44938998
 C                  7.50351916   -2.51370724   -1.32623849
 H                  5.47710337   -1.98916700   -1.92578837
 C                  8.54528701   -2.26823759   -0.43212040
 H                  9.22786541   -1.11070967    1.26764302
 H                  7.61462153   -3.28342049   -2.10436810
 H                  9.47998684   -2.84301523   -0.50768623

Transition State Guess

0 1
 C                 -0.65294644   -1.29302805    0.07674159
 C                  0.74793795   -1.32945549    0.08759982
 C                  1.47996645   -0.13444251    0.08805499
 C                  0.81111052    1.09699794    0.07765656
 C                 -0.58977388    1.13342537    0.06679800
 C                 -1.32180236   -0.06158762    0.06633975
 H                 -1.21186644   -2.20544699    0.07639362
 H                  1.25862430   -2.26968760    0.09553968
 H                  1.37003052    2.00941687    0.07800378
 H                 -1.10046023    2.07365748    0.05885857
 H                 -2.39140868   -0.03377446    0.05804943
 N                  2.94942565   -0.17265313    0.09943988
 C                  3.97249193   -1.09961212    0.11127793
 H                  4.03019477    0.70873293    0.10394915
 O                  3.96612388   -2.52958179    0.11807425
 O                  5.11700626   -0.08094673    0.11491696
 C                  6.06982133   -0.02911605    1.17997894
 C                  6.03331250    1.02552483    2.10210782
 C                  7.04008893   -1.03296287    1.30161079
 C                  6.96707230    1.07631977    3.14586760
 H                  5.29249205    1.79198449    2.00923883
 C                  7.97384943   -0.98216733    2.34536991
 H                  7.06796405   -1.83820474    0.59754510
 C                  7.93734211    0.07247484    3.26749739
 H                  6.93919808    1.88156241    3.84993245
 H                  8.71466942   -1.74862738    2.43823934
 H                  8.65028860    0.11125804    4.06443099







