%chk=geometry.chk
%mem=4GB
%nprocshared=4

#P OPT wB97XD/6-31G* NoSymm

PHI Geometry (Unoptimized)

0 1 
 C                 -0.59918775   -1.24836548    0.12076235
 C                  0.77018017   -0.96721410    0.01319255
 C                  1.20379831    0.35504230   -0.16747128
 C                  0.26762646    1.39537712   -0.24154912
 C                 -1.10186588    1.11355111   -0.13403851
 C                 -1.53519316   -0.20796598    0.04711119
 H                 -0.93040439   -2.25730701    0.25894043
 H                  1.48499399   -1.76150515    0.07024238
 H                  0.59841769    2.40456960   -0.38048613
 H                 -1.81675543    1.90714981   -0.19035568
 H                 -2.58113876   -0.42285375    0.12915801
 N                  2.64053455    0.65013542   -0.27908987
 C                  3.50278227   -0.31180552   -0.21039584
 O                  4.44521011   -1.38625409   -0.13176608








