%chk=geometry.chk
%mem=4GB
%nprocshared=4

#P OPT wB97XD/6-31G* NoSymm

CHOL Geometry (Unoptimized)

0 1 
 H                  4.03019477    0.70873293    0.10394915
 O                  5.11700626   -0.08094673    0.11491696
 C                  6.06982133   -0.02911605    1.17997894
 C                  6.03331250    1.02552483    2.10210782
 C                  7.04008893   -1.03296287    1.30161079
 C                  6.96707230    1.07631977    3.14586760
 H                  5.29249205    1.79198449    2.00923883
 C                  7.97384943   -0.98216733    2.34536991
 H                  7.06796405   -1.83820474    0.59754510
 C                  7.93734211    0.07247484    3.26749739
 H                  6.93919808    1.88156241    3.84993245
 H                  8.71466942   -1.74862738    2.43823934
 H                  8.65028860    0.11125804    4.06443099








